Scenario_Rural/RuralIEEE.txt
 04/12/16 KIT AIFB             0.1    2016 S KIT AIFB 13 BUS LV_RURAL
BUS DATA FOLLOWS 13 ITEMS
0001  BUS_0000001  1  1  3 1.000 0.0        0.0     0.0       0.0     0.0   0.4     0.0     0.0     0.0     0.0     0.0       0
0002  BUS_0000002  1  1  0 x.xxx x.xxx  xxxxx.xx  xxx.xx      0.0     0.0   0.4     0.0     0.0     0.0     0.0     0.0       0
0003  BUS_0000003  1  1  0 x.xxx x.xxx  xxxxx.xx  xxx.xx      0.0     0.0   0.4     0.0     0.0     0.0     0.0     0.0       0
0004  BUS_0000004  1  1  0 x.xxx x.xxx  xxxxx.xx  xxx.xx      0.0     0.0   0.4     0.0     0.0     0.0     0.0     0.0       0
0005  BUS_0000005  1  1  0 x.xxx x.xxx  xxxxx.xx  xxx.xx      0.0     0.0   0.4     0.0     0.0     0.0     0.0     0.0       0
0006  BUS_0000006  1  1  0 x.xxx x.xxx  xxxxx.xx  xxx.xx      0.0     0.0   0.4     0.0     0.0     0.0     0.0     0.0       0
0007  BUS_0000007  1  1  0 x.xxx x.xxx  xxxxx.xx  xxx.xx      0.0     0.0   0.4     0.0     0.0     0.0     0.0     0.0       0
0008  BUS_0000008  1  1  0 x.xxx x.xxx  xxxxx.xx  xxx.xx      0.0     0.0   0.4     0.0     0.0     0.0     0.0     0.0       0
0009  BUS_0000009  1  1  0 x.xxx x.xxx  xxxxx.xx  xxx.xx      0.0     0.0   0.4     0.0     0.0     0.0     0.0     0.0       0
0010  BUS_0000010  1  1  0 x.xxx x.xxx  xxxxx.xx  xxx.xx      0.0     0.0   0.4     0.0     0.0     0.0     0.0     0.0       0
0011  BUS_0000011  1  1  0 x.xxx x.xxx  xxxxx.xx  xxx.xx      0.0     0.0   0.4     0.0     0.0     0.0     0.0     0.0       0
0012  BUS_0000012  1  1  0 x.xxx x.xxx  xxxxx.xx  xxx.xx      0.0     0.0   0.4     0.0     0.0     0.0     0.0     0.0       0
0013  BUS_0000013  1  1  0 x.xxx x.xxx  xxxxx.xx  xxx.xx      0.0     0.0   0.4     0.0     0.0     0.0     0.0     0.0       0
-999
BRANCH DATA FOLLOWS                    12 ITEMS
   1    2  1 1  1 00.009813  0.007125      0.0    0.201 0.201 0.201    0     0.0    0.0     0.0    0.0      0.0    0.0    0.0 
   1   11  1 1  1 00.002583  0.001875      0.0    0.201 0.201 0.201    0     0.0    0.0     0.0    0.0      0.0    0.0    0.0 
   2    3  1 1  1 00.01033   0.0075        0.0    0.201 0.201 0.201    0     0.0    0.0     0.0    0.0      0.0    0.0    0.0 
   3    4  1 1  1 00.007489  0.005437      0.0    0.201 0.201 0.201    0     0.0    0.0     0.0    0.0      0.0    0.0    0.0 
   4    5  1 1  1 00.01291   0.009375      0.0    0.201 0.201 0.201    0     0.0    0.0     0.0    0.0      0.0    0.0    0.0 
   4    7  1 1  1 00.001291  0.0009375     0.0    0.201 0.201 0.201    0     0.0    0.0     0.0    0.0      0.0    0.0    0.0 
   5    6  1 1  1 00.01653   0.012         0.0    0.201 0.201 0.201    0     0.0    0.0     0.0    0.0      0.0    0.0    0.0 
   7    8  1 1  1 00.02092   0.01519       0.0    0.201 0.201 0.201    0     0.0    0.0     0.0    0.0      0.0    0.0    0.0 
   8    9  1 1  1 00.01524   0.01106       0.0    0.201 0.201 0.201    0     0.0    0.0     0.0    0.0      0.0    0.0    0.0 
   9   10  1 1  1 00.007748  0.005625      0.0    0.201 0.201 0.201    0     0.0    0.0     0.0    0.0      0.0    0.0    0.0 
  11   12  1 1  1 00.02169   0.01575       0.0    0.201 0.201 0.201    0     0.0    0.0     0.0    0.0      0.0    0.0    0.0 
  12   13  1 1  1 00.02324   0.01687       0.0    0.201 0.201 0.201    0     0.0    0.0     0.0    0.0      0.0    0.0    0.0 
-999
LOSS ZONE FOLLOWS                      1 ITEMS
1  LV_RURAL
-99
INTERCHANGE DATA FOLLOWS               0 ITEMS
-9
TIE LINES FOLLOWS                      0 ITEMS
-999
END OF DATA
